* RD3P01BAT PMOSFET model
* Model Generated by ROHM
* All Rights Reserved
* Commercial Use or
* Resale Restricted
* Date: 2023/02/03
******************D G S
.SUBCKT RD3P01BAT 1 2 3
M1 11 22 3 3 MOS_P
D1 1 3 DDS1
R1 1 11 RTH 164.24E-3
RG 2 22 18.15
D14 11 22 DGD1
.MODEL MOS_P PMOS TNOM = 25
+ LEVEL = 3
+ L = 2.0000E-6
+ W = 1
+ KP = 18.397E-6
+ RS = 0
+ RD = 0
+ VTO = -3.3825
+ TOX = 2.0000E-6
+ CGSO = 590.00E-12
+ CGDO = 25.000E-12
+ CBD = 0
+ N = 2
+ GAMMA = 1.6
+ ETA = 0.0003
+ KAPPA = 0.2
+ NFS = 21.000E+9
+ XJ = 1.0000E-6
+ UO = 126.59
+ VMAX = 50.000E+3
.MODEL DDS1 D TNOM = 25
+ IS = 44.394E-12
+ N = 1.2218
+ RS = 12.883E-3
+ IKF = 2.0403
+ CJO = 80.000E-12
+ M = 0.6179
+ VJ = 0.5065
+ XTI = 0.01
+ BV = 100
+ TT = 35.200E-9
.MODEL RTH RES TNOM = 25
+ TC1 = 4.5000E-3
+ TC2 = 0.0060E-3
.MODEL DGD1 D TNOM = 25
+ N = 10.000E+3
+ CJO = 230.00E-12
+ M = 0.7965
+ VJ = 1.2485
+ FC = 0.06
+ T_ABS = 25
.ENDS
